<%#INTERFACE

parameter "run_control", :default=>"ANNUAL"  # Sets the simulation run period (ANNUAL | SIZING)

parameter "timestep", :default=>"Hourly"
parameter "run_name", :default=>"Building"


# CZ/Vintages parameters
# window
# parameter "glass_u", :default=>0.66['U-IP']
# parameter "glass_shgc", :default=>0.52

# exterior wall
parameter "wall_consol_layer_thickness", :default=>0.0325['m']
parameter "wall_consol_layer_conductivity", :default=>0.057165

# exterior floor
parameter "floor_consol_layer_thickness", :default=>0.16['m']
# parameter "floor_consol_layer_conductivity", :default=>0.08652

# ceiling
parameter "ceil_consol_layer_thickness", :default=>0.19['m']
parameter "ceil_consol_layer_conductivity", :default=>0.0617176

# zone infiltration
parameter "infiltration_ACH", :default=>0.35

# door construction
parameter "door_thermal_resistance", :default=>0.32036363636

# Thermostat Setpoint
parameter "climate_zone", :default=>1

#shading control
parameter "shading_control", :default=>'AlwaysOn'

# measures-cases-parameters
#sizing parameter
parameter "sizing_parameter", :default=>1.8

# WHFans
# parameter "exhaust_fan_flow", :default=>0.0['CFM/ft2']
# parameter "fan_total_eff", :default=>0.0

# fan power
parameter "supplyfan_total_eff", :default=>0.7
parameter "motor_eff", :default=>0.9

# SEER Rated ACHP
parameter "system_type", :default=>"PTAC"
parameter "cooling_coil_cop", :default=>3.28
parameter "heating_coil_cop", :default=>2.26


#fridge/freezer power level
parameter "refgfrzr_power_level", :default=>1.37778053333884

%>



<%insert 'site.pxt'%>

<%
insert 'zoneloads/schedules.imf',
  :climate_zone => climate_zone

%>
!-Generator IDFEditor 1.51
!-Option SortedOrder ViewInIPunits

!-NOTE: All comments with '!-' are ignored by the IDFEditor and are generated automatically.
!-      Use '!' comments if they need to be retained when using the IDFEditor.


!-   ===========  ALL OBJECTS IN CLASS: VERSION ===========

Version,
    9.5;                     !- Version Identifier


!-   ===========  ALL OBJECTS IN CLASS: SIMULATIONCONTROL ===========

SimulationControl,
    Yes,                     !- Do Zone Sizing Calculation
    Yes,                     !- Do System Sizing Calculation
    Yes,                     !- Do Plant Sizing Calculation
    No,                     !- Run Simulation for Sizing Periods
    Yes,                     !- Run Simulation for Weather File Run Periods
    ,                        !- Do HVAC Sizing Simulation for Sizing Periods
    ;                        !- Maximum Number of HVAC Sizing Simulation Passes


!-   ===========  ALL OBJECTS IN CLASS: BUILDING ===========

Building,
    DMo+dxgf+existing,       !- Name
    0,                       !- North Axis {deg}
    Suburbs,                 !- Terrain
    0.04,                    !- Loads Convergence Tolerance Value {W}
    0.4,                     !- Temperature Convergence Tolerance Value {deltaC}
    FullExterior,            !- Solar Distribution
    40,                      !- Maximum Number of Warmup Days
    10;                      !- Minimum Number of Warmup Days


!-   ===========  ALL OBJECTS IN CLASS: SURFACECONVECTIONALGORITHM:INSIDE ===========

SurfaceConvectionAlgorithm:Inside,
    TARP;                    !- Algorithm


!-   ===========  ALL OBJECTS IN CLASS: TIMESTEP ===========

Timestep,
    6;                       !- Number of Timesteps per Hour





!-   ===========  ALL OBJECTS IN CLASS: RUNPERIOD ===========

RunPeriod,
    annual,                  !- Name
    1,                       !- Begin Month
    1,                       !- Begin Day of Month
    ,                        !- Begin Year
    12,                      !- End Month
    31,                      !- End Day of Month
    ,                        !- End Year
    Thursday,                !- Day of Week for Start Day
    Yes,                     !- Use Weather File Holidays and Special Days
    Yes,                     !- Use Weather File Daylight Saving Period
    Yes,                     !- Apply Weekend Holiday Rule
    Yes,                     !- Use Weather File Rain Indicators
    Yes;                     !- Use Weather File Snow Indicators



!-   ===========  ALL OBJECTS IN CLASS: SCHEDULETYPELIMITS ===========

ScheduleTypeLimits,
    any number;              !- Name

ScheduleTypeLimits,
    On/Off,                  !- Name
    0,                       !- Lower Limit Value
    1,                       !- Upper Limit Value
    Discrete;                !- Numeric Type

ScheduleTypeLimits,
    control_type,            !- Name
    0,                       !- Lower Limit Value
    4,                       !- Upper Limit Value
    Discrete;                !- Numeric Type

ScheduleTypeLimits,
    fraction,                !- Name
    0,                       !- Lower Limit Value
    1,                       !- Upper Limit Value
    Continuous;              !- Numeric Type

ScheduleTypeLimits,
    Temperature,             !- Name
    -60,                     !- Lower Limit Value
    200,                     !- Upper Limit Value
    Continuous;              !- Numeric Type


!-   ===========  ALL OBJECTS IN CLASS: SCHEDULE:DAY:HOURLY ===========

Schedule:Day:Hourly,
    EL1 Occ-2 S1 WD,       !- Name
    fraction,                !- Schedule Type Limits Name
    0.0,                     !- Hour 1
    0.0,                     !- Hour 2
    0.0,                     !- Hour 3
    0.0,                     !- Hour 4
    0.0,                     !- Hour 5
    0.0,                     !- Hour 6
    0.5,                     !- Hour 7
    0.33,                    !- Hour 8
    0.33,                    !- Hour 9
    0.33,                    !- Hour 10
    0.33,                    !- Hour 11
    0.33,                    !- Hour 12
    0.33,                    !- Hour 13
    0.33,                    !- Hour 14
    0.33,                    !- Hour 15
    0.33,                    !- Hour 16
    0.33,                    !- Hour 17
    0.33,                    !- Hour 18
    1.0,                     !- Hour 19
    1.0,                     !- Hour 20
    1.0,                     !- Hour 21
    1.0,                     !- Hour 22
    0.5,                     !- Hour 23
    0.0;                     !- Hour 24

Schedule:Day:Hourly,
    EL1 Occ-2 S1 WEH,      !- Name
    fraction,                !- Schedule Type Limits Name
    0.0,                     !- Hour 1
    0.0,                     !- Hour 2
    0.0,                     !- Hour 3
    0.0,                     !- Hour 4
    0.0,                     !- Hour 5
    0.0,                     !- Hour 6
    0.0,                     !- Hour 7
    0.5,                     !- Hour 8
    0.67,                    !- Hour 9
    0.67,                    !- Hour 10
    0.67,                    !- Hour 11
    0.67,                    !- Hour 12
    0.67,                    !- Hour 13
    0.67,                    !- Hour 14
    0.67,                    !- Hour 15
    0.67,                    !- Hour 16
    0.67,                    !- Hour 17
    1.0,                     !- Hour 18
    1.0,                     !- Hour 19
    1.0,                     !- Hour 20
    1.0,                     !- Hour 21
    1.0,                     !- Hour 22
    0.5,                     !- Hour 23
    0.0;                     !- Hour 24

Schedule:Day:Hourly,
    EL1 Occ-2 S1 HDD,      !- Name
    fraction,                !- Schedule Type Limits Name
    0.0,                     !- Hour 1
    0.0,                     !- Hour 2
    0.0,                     !- Hour 3
    0.0,                     !- Hour 4
    0.0,                     !- Hour 5
    0.0,                     !- Hour 6
    0.0,                     !- Hour 7
    0.0,                     !- Hour 8
    0.0,                     !- Hour 9
    0.0,                     !- Hour 10
    0.0,                     !- Hour 11
    0.0,                     !- Hour 12
    0.0,                     !- Hour 13
    0.0,                     !- Hour 14
    0.0,                     !- Hour 15
    0.0,                     !- Hour 16
    0.0,                     !- Hour 17
    0.0,                     !- Hour 18
    0.0,                     !- Hour 19
    0.0,                     !- Hour 20
    0.0,                     !- Hour 21
    0.0,                     !- Hour 22
    0.0,                     !- Hour 23
    0.0;                     !- Hour 24

Schedule:Day:Hourly,
    EL1 Occ-2 S1 CDD,      !- Name
    fraction,                !- Schedule Type Limits Name
    0.0,                     !- Hour 1
    0.0,                     !- Hour 2
    0.0,                     !- Hour 3
    0.0,                     !- Hour 4
    0.0,                     !- Hour 5
    0.0,                     !- Hour 6
    0.0,                     !- Hour 7
    0.5,                     !- Hour 8
    0.67,                    !- Hour 9
    0.67,                    !- Hour 10
    0.67,                    !- Hour 11
    0.67,                    !- Hour 12
    0.67,                    !- Hour 13
    0.67,                    !- Hour 14
    0.67,                    !- Hour 15
    0.67,                    !- Hour 16
    0.67,                    !- Hour 17
    1.0,                     !- Hour 18
    1.0,                     !- Hour 19
    1.0,                     !- Hour 20
    1.0,                     !- Hour 21
    1.0,                     !- Hour 22
    0.5,                     !- Hour 23
    0.0;                     !- Hour 24

Schedule:Day:Hourly,
    EL1 Occ-2 S2 WD,       !- Name
    fraction,                !- Schedule Type Limits Name
    0.0,                     !- Hour 1
    0.0,                     !- Hour 2
    0.0,                     !- Hour 3
    0.0,                     !- Hour 4
    0.0,                     !- Hour 5
    0.0,                     !- Hour 6
    0.5,                     !- Hour 7
    0.33,                    !- Hour 8
    0.33,                    !- Hour 9
    0.33,                    !- Hour 10
    0.33,                    !- Hour 11
    0.33,                    !- Hour 12
    0.33,                    !- Hour 13
    0.33,                    !- Hour 14
    0.33,                    !- Hour 15
    0.33,                    !- Hour 16
    0.33,                    !- Hour 17
    0.33,                    !- Hour 18
    1.0,                     !- Hour 19
    1.0,                     !- Hour 20
    1.0,                     !- Hour 21
    1.0,                     !- Hour 22
    0.5,                     !- Hour 23
    0.0;                     !- Hour 24

Schedule:Day:Hourly,
    EL1 Occ-2 S2 WEH,      !- Name
    fraction,                !- Schedule Type Limits Name
    0.0,                     !- Hour 1
    0.0,                     !- Hour 2
    0.0,                     !- Hour 3
    0.0,                     !- Hour 4
    0.0,                     !- Hour 5
    0.0,                     !- Hour 6
    0.0,                     !- Hour 7
    0.5,                     !- Hour 8
    0.67,                    !- Hour 9
    0.67,                    !- Hour 10
    0.67,                    !- Hour 11
    0.67,                    !- Hour 12
    0.67,                    !- Hour 13
    0.67,                    !- Hour 14
    0.67,                    !- Hour 15
    0.67,                    !- Hour 16
    0.67,                    !- Hour 17
    1.0,                     !- Hour 18
    1.0,                     !- Hour 19
    1.0,                     !- Hour 20
    1.0,                     !- Hour 21
    1.0,                     !- Hour 22
    0.5,                     !- Hour 23
    0.0;                     !- Hour 24

Schedule:Day:Hourly,
    EL1 Occ-2 S2 HDD,      !- Name
    fraction,                !- Schedule Type Limits Name
    0.0,                     !- Hour 1
    0.0,                     !- Hour 2
    0.0,                     !- Hour 3
    0.0,                     !- Hour 4
    0.0,                     !- Hour 5
    0.0,                     !- Hour 6
    0.0,                     !- Hour 7
    0.0,                     !- Hour 8
    0.0,                     !- Hour 9
    0.0,                     !- Hour 10
    0.0,                     !- Hour 11
    0.0,                     !- Hour 12
    0.0,                     !- Hour 13
    0.0,                     !- Hour 14
    0.0,                     !- Hour 15
    0.0,                     !- Hour 16
    0.0,                     !- Hour 17
    0.0,                     !- Hour 18
    0.0,                     !- Hour 19
    0.0,                     !- Hour 20
    0.0,                     !- Hour 21
    0.0,                     !- Hour 22
    0.0,                     !- Hour 23
    0.0;                     !- Hour 24

Schedule:Day:Hourly,
    EL1 Occ-2 S2 CDD,      !- Name
    fraction,                !- Schedule Type Limits Name
    0.0,                     !- Hour 1
    0.0,                     !- Hour 2
    0.0,                     !- Hour 3
    0.0,                     !- Hour 4
    0.0,                     !- Hour 5
    0.0,                     !- Hour 6
    0.0,                     !- Hour 7
    0.5,                     !- Hour 8
    0.67,                    !- Hour 9
    0.67,                    !- Hour 10
    0.67,                    !- Hour 11
    0.67,                    !- Hour 12
    0.67,                    !- Hour 13
    0.67,                    !- Hour 14
    0.67,                    !- Hour 15
    0.67,                    !- Hour 16
    0.67,                    !- Hour 17
    1.0,                     !- Hour 18
    1.0,                     !- Hour 19
    1.0,                     !- Hour 20
    1.0,                     !- Hour 21
    1.0,                     !- Hour 22
    0.5,                     !- Hour 23
    0.0;                     !- Hour 24

Schedule:Day:Hourly,
    EL1 Occ-2 S3 WD,       !- Name
    fraction,                !- Schedule Type Limits Name
    0.0,                     !- Hour 1
    0.0,                     !- Hour 2
    0.0,                     !- Hour 3
    0.0,                     !- Hour 4
    0.0,                     !- Hour 5
    0.0,                     !- Hour 6
    0.5,                     !- Hour 7
    0.33,                    !- Hour 8
    0.33,                    !- Hour 9
    0.33,                    !- Hour 10
    0.33,                    !- Hour 11
    0.33,                    !- Hour 12
    0.33,                    !- Hour 13
    0.33,                    !- Hour 14
    0.33,                    !- Hour 15
    0.33,                    !- Hour 16
    0.33,                    !- Hour 17
    0.33,                    !- Hour 18
    1.0,                     !- Hour 19
    1.0,                     !- Hour 20
    1.0,                     !- Hour 21
    1.0,                     !- Hour 22
    0.5,                     !- Hour 23
    0.0;                     !- Hour 24

Schedule:Day:Hourly,
    EL1 Occ-2 S3 WEH,      !- Name
    fraction,                !- Schedule Type Limits Name
    0.0,                     !- Hour 1
    0.0,                     !- Hour 2
    0.0,                     !- Hour 3
    0.0,                     !- Hour 4
    0.0,                     !- Hour 5
    0.0,                     !- Hour 6
    0.0,                     !- Hour 7
    0.5,                     !- Hour 8
    0.67,                    !- Hour 9
    0.67,                    !- Hour 10
    0.67,                    !- Hour 11
    0.67,                    !- Hour 12
    0.67,                    !- Hour 13
    0.67,                    !- Hour 14
    0.67,                    !- Hour 15
    0.67,                    !- Hour 16
    0.67,                    !- Hour 17
    1.0,                     !- Hour 18
    1.0,                     !- Hour 19
    1.0,                     !- Hour 20
    1.0,                     !- Hour 21
    1.0,                     !- Hour 22
    0.5,                     !- Hour 23
    0.0;                     !- Hour 24

Schedule:Day:Hourly,
    EL1 Occ-2 S3 HDD,      !- Name
    fraction,                !- Schedule Type Limits Name
    0.0,                     !- Hour 1
    0.0,                     !- Hour 2
    0.0,                     !- Hour 3
    0.0,                     !- Hour 4
    0.0,                     !- Hour 5
    0.0,                     !- Hour 6
    0.0,                     !- Hour 7
    0.0,                     !- Hour 8
    0.0,                     !- Hour 9
    0.0,                     !- Hour 10
    0.0,                     !- Hour 11
    0.0,                     !- Hour 12
    0.0,                     !- Hour 13
    0.0,                     !- Hour 14
    0.0,                     !- Hour 15
    0.0,                     !- Hour 16
    0.0,                     !- Hour 17
    0.0,                     !- Hour 18
    0.0,                     !- Hour 19
    0.0,                     !- Hour 20
    0.0,                     !- Hour 21
    0.0,                     !- Hour 22
    0.0,                     !- Hour 23
    0.0;                     !- Hour 24

Schedule:Day:Hourly,
    EL1 Occ-2 S3 CDD,      !- Name
    fraction,                !- Schedule Type Limits Name
    0.0,                     !- Hour 1
    0.0,                     !- Hour 2
    0.0,                     !- Hour 3
    0.0,                     !- Hour 4
    0.0,                     !- Hour 5
    0.0,                     !- Hour 6
    0.0,                     !- Hour 7
    0.5,                     !- Hour 8
    0.67,                    !- Hour 9
    0.67,                    !- Hour 10
    0.67,                    !- Hour 11
    0.67,                    !- Hour 12
    0.67,                    !- Hour 13
    0.67,                    !- Hour 14
    0.67,                    !- Hour 15
    0.67,                    !- Hour 16
    0.67,                    !- Hour 17
    1.0,                     !- Hour 18
    1.0,                     !- Hour 19
    1.0,                     !- Hour 20
    1.0,                     !- Hour 21
    1.0,                     !- Hour 22
    0.5,                     !- Hour 23
    0.0;                     !- Hour 24

Schedule:Day:Hourly,
    EL1 Occ-1 S1 WD,       !- Name
    fraction,                !- Schedule Type Limits Name
    1.0,                     !- Hour 1
    1.0,                     !- Hour 2
    1.0,                     !- Hour 3
    1.0,                     !- Hour 4
    1.0,                     !- Hour 5
    1.0,                     !- Hour 6
    0.5,                     !- Hour 7
    0.33,                    !- Hour 8
    0.0,                     !- Hour 9
    0.0,                     !- Hour 10
    0.0,                     !- Hour 11
    0.0,                     !- Hour 12
    0.0,                     !- Hour 13
    0.0,                     !- Hour 14
    0.0,                     !- Hour 15
    0.0,                     !- Hour 16
    0.0,                     !- Hour 17
    0.0,                     !- Hour 18
    0.0,                     !- Hour 19
    0.0,                     !- Hour 20
    0.0,                     !- Hour 21
    0.0,                     !- Hour 22
    0.5,                     !- Hour 23
    1.0;                     !- Hour 24

Schedule:Day:Hourly,
    EL1 Occ-1 S1 WEH,      !- Name
    fraction,                !- Schedule Type Limits Name
    1.0,                     !- Hour 1
    1.0,                     !- Hour 2
    1.0,                     !- Hour 3
    1.0,                     !- Hour 4
    1.0,                     !- Hour 5
    1.0,                     !- Hour 6
    1.0,                     !- Hour 7
    0.5,                     !- Hour 8
    0.0,                     !- Hour 9
    0.0,                     !- Hour 10
    0.0,                     !- Hour 11
    0.0,                     !- Hour 12
    0.0,                     !- Hour 13
    0.0,                     !- Hour 14
    0.0,                     !- Hour 15
    0.0,                     !- Hour 16
    0.0,                     !- Hour 17
    0.0,                     !- Hour 18
    0.0,                     !- Hour 19
    0.0,                     !- Hour 20
    0.0,                     !- Hour 21
    0.0,                     !- Hour 22
    0.5,                     !- Hour 23
    1.0;                     !- Hour 24

Schedule:Day:Hourly,
    EL1 Occ-1 S1 HDD,      !- Name
    fraction,                !- Schedule Type Limits Name
    0.0,                     !- Hour 1
    0.0,                     !- Hour 2
    0.0,                     !- Hour 3
    0.0,                     !- Hour 4
    0.0,                     !- Hour 5
    0.0,                     !- Hour 6
    0.0,                     !- Hour 7
    0.0,                     !- Hour 8
    0.0,                     !- Hour 9
    0.0,                     !- Hour 10
    0.0,                     !- Hour 11
    0.0,                     !- Hour 12
    0.0,                     !- Hour 13
    0.0,                     !- Hour 14
    0.0,                     !- Hour 15
    0.0,                     !- Hour 16
    0.0,                     !- Hour 17
    0.0,                     !- Hour 18
    0.0,                     !- Hour 19
    0.0,                     !- Hour 20
    0.0,                     !- Hour 21
    0.0,                     !- Hour 22
    0.0,                     !- Hour 23
    0.0;                     !- Hour 24

Schedule:Day:Hourly,
    EL1 Occ-1 S1 CDD,      !- Name
    fraction,                !- Schedule Type Limits Name
    1.0,                     !- Hour 1
    1.0,                     !- Hour 2
    1.0,                     !- Hour 3
    1.0,                     !- Hour 4
    1.0,                     !- Hour 5
    1.0,                     !- Hour 6
    1.0,                     !- Hour 7
    0.5,                     !- Hour 8
    0.0,                     !- Hour 9
    0.0,                     !- Hour 10
    0.0,                     !- Hour 11
    0.0,                     !- Hour 12
    0.0,                     !- Hour 13
    0.0,                     !- Hour 14
    0.0,                     !- Hour 15
    0.0,                     !- Hour 16
    0.0,                     !- Hour 17
    0.0,                     !- Hour 18
    0.0,                     !- Hour 19
    0.0,                     !- Hour 20
    0.0,                     !- Hour 21
    0.0,                     !- Hour 22
    0.5,                     !- Hour 23
    1.0;                     !- Hour 24

Schedule:Day:Hourly,
    EL1 Occ-1 S2 WD,       !- Name
    fraction,                !- Schedule Type Limits Name
    1.0,                     !- Hour 1
    1.0,                     !- Hour 2
    1.0,                     !- Hour 3
    1.0,                     !- Hour 4
    1.0,                     !- Hour 5
    1.0,                     !- Hour 6
    0.5,                     !- Hour 7
    0.33,                    !- Hour 8
    0.0,                     !- Hour 9
    0.0,                     !- Hour 10
    0.0,                     !- Hour 11
    0.0,                     !- Hour 12
    0.0,                     !- Hour 13
    0.0,                     !- Hour 14
    0.0,                     !- Hour 15
    0.0,                     !- Hour 16
    0.0,                     !- Hour 17
    0.0,                     !- Hour 18
    0.0,                     !- Hour 19
    0.0,                     !- Hour 20
    0.0,                     !- Hour 21
    0.0,                     !- Hour 22
    0.5,                     !- Hour 23
    1.0;                     !- Hour 24

Schedule:Day:Hourly,
    EL1 Occ-1 S2 WEH,      !- Name
    fraction,                !- Schedule Type Limits Name
    1.0,                     !- Hour 1
    1.0,                     !- Hour 2
    1.0,                     !- Hour 3
    1.0,                     !- Hour 4
    1.0,                     !- Hour 5
    1.0,                     !- Hour 6
    1.0,                     !- Hour 7
    0.5,                     !- Hour 8
    0.0,                     !- Hour 9
    0.0,                     !- Hour 10
    0.0,                     !- Hour 11
    0.0,                     !- Hour 12
    0.0,                     !- Hour 13
    0.0,                     !- Hour 14
    0.0,                     !- Hour 15
    0.0,                     !- Hour 16
    0.0,                     !- Hour 17
    0.0,                     !- Hour 18
    0.0,                     !- Hour 19
    0.0,                     !- Hour 20
    0.0,                     !- Hour 21
    0.0,                     !- Hour 22
    0.5,                     !- Hour 23
    1.0;                     !- Hour 24

Schedule:Day:Hourly,
    EL1 Occ-1 S2 HDD,      !- Name
    fraction,                !- Schedule Type Limits Name
    0.0,                     !- Hour 1
    0.0,                     !- Hour 2
    0.0,                     !- Hour 3
    0.0,                     !- Hour 4
    0.0,                     !- Hour 5
    0.0,                     !- Hour 6
    0.0,                     !- Hour 7
    0.0,                     !- Hour 8
    0.0,                     !- Hour 9
    0.0,                     !- Hour 10
    0.0,                     !- Hour 11
    0.0,                     !- Hour 12
    0.0,                     !- Hour 13
    0.0,                     !- Hour 14
    0.0,                     !- Hour 15
    0.0,                     !- Hour 16
    0.0,                     !- Hour 17
    0.0,                     !- Hour 18
    0.0,                     !- Hour 19
    0.0,                     !- Hour 20
    0.0,                     !- Hour 21
    0.0,                     !- Hour 22
    0.0,                     !- Hour 23
    0.0;                     !- Hour 24

Schedule:Day:Hourly,
    EL1 Occ-1 S2 CDD,      !- Name
    fraction,                !- Schedule Type Limits Name
    1.0,                     !- Hour 1
    1.0,                     !- Hour 2
    1.0,                     !- Hour 3
    1.0,                     !- Hour 4
    1.0,                     !- Hour 5
    1.0,                     !- Hour 6
    1.0,                     !- Hour 7
    0.5,                     !- Hour 8
    0.0,                     !- Hour 9
    0.0,                     !- Hour 10
    0.0,                     !- Hour 11
    0.0,                     !- Hour 12
    0.0,                     !- Hour 13
    0.0,                     !- Hour 14
    0.0,                     !- Hour 15
    0.0,                     !- Hour 16
    0.0,                     !- Hour 17
    0.0,                     !- Hour 18
    0.0,                     !- Hour 19
    0.0,                     !- Hour 20
    0.0,                     !- Hour 21
    0.0,                     !- Hour 22
    0.5,                     !- Hour 23
    1.0;                     !- Hour 24

Schedule:Day:Hourly,
    EL1 Occ-1 S3 WD,       !- Name
    fraction,                !- Schedule Type Limits Name
    1.0,                     !- Hour 1
    1.0,                     !- Hour 2
    1.0,                     !- Hour 3
    1.0,                     !- Hour 4
    1.0,                     !- Hour 5
    1.0,                     !- Hour 6
    0.5,                     !- Hour 7
    0.33,                    !- Hour 8
    0.0,                     !- Hour 9
    0.0,                     !- Hour 10
    0.0,                     !- Hour 11
    0.0,                     !- Hour 12
    0.0,                     !- Hour 13
    0.0,                     !- Hour 14
    0.0,                     !- Hour 15
    0.0,                     !- Hour 16
    0.0,                     !- Hour 17
    0.0,                     !- Hour 18
    0.0,                     !- Hour 19
    0.0,                     !- Hour 20
    0.0,                     !- Hour 21
    0.0,                     !- Hour 22
    0.5,                     !- Hour 23
    1.0;                     !- Hour 24

Schedule:Day:Hourly,
    EL1 Occ-1 S3 WEH,      !- Name
    fraction,                !- Schedule Type Limits Name
    1.0,                     !- Hour 1
    1.0,                     !- Hour 2
    1.0,                     !- Hour 3
    1.0,                     !- Hour 4
    1.0,                     !- Hour 5
    1.0,                     !- Hour 6
    1.0,                     !- Hour 7
    0.5,                     !- Hour 8
    0.0,                     !- Hour 9
    0.0,                     !- Hour 10
    0.0,                     !- Hour 11
    0.0,                     !- Hour 12
    0.0,                     !- Hour 13
    0.0,                     !- Hour 14
    0.0,                     !- Hour 15
    0.0,                     !- Hour 16
    0.0,                     !- Hour 17
    0.0,                     !- Hour 18
    0.0,                     !- Hour 19
    0.0,                     !- Hour 20
    0.0,                     !- Hour 21
    0.0,                     !- Hour 22
    0.5,                     !- Hour 23
    1.0;                     !- Hour 24

Schedule:Day:Hourly,
    EL1 Occ-1 S3 HDD,      !- Name
    fraction,                !- Schedule Type Limits Name
    0.0,                     !- Hour 1
    0.0,                     !- Hour 2
    0.0,                     !- Hour 3
    0.0,                     !- Hour 4
    0.0,                     !- Hour 5
    0.0,                     !- Hour 6
    0.0,                     !- Hour 7
    0.0,                     !- Hour 8
    0.0,                     !- Hour 9
    0.0,                     !- Hour 10
    0.0,                     !- Hour 11
    0.0,                     !- Hour 12
    0.0,                     !- Hour 13
    0.0,                     !- Hour 14
    0.0,                     !- Hour 15
    0.0,                     !- Hour 16
    0.0,                     !- Hour 17
    0.0,                     !- Hour 18
    0.0,                     !- Hour 19
    0.0,                     !- Hour 20
    0.0,                     !- Hour 21
    0.0,                     !- Hour 22
    0.0,                     !- Hour 23
    0.0;                     !- Hour 24

Schedule:Day:Hourly,
    EL1 ILt-1 S1 WD,       !- Name
    fraction,                !- Schedule Type Limits Name
    0.0364,                  !- Hour 1
    0.0247,                  !- Hour 2
    0.0192,                  !- Hour 3